
  MOE2020           3D

  9  8  0  0  0  0  0  0  0  0999 V2000
   -0.0845   -0.0932   -0.0931 O   0  0  0  0  0  0  0  0  0  0  0  0
    1.3352   -0.1390   -0.1387 C   0  0  0  0  0  0  0  0  0  0  0  0
    1.6323   -0.8830   -0.8827 H   0  0  0  0  0  0  0  0  0  0  0  0
    1.7404   -0.4356    0.8336 H   0  0  0  0  0  0  0  0  0  0  0  0
    1.7406    0.8332   -0.4355 H   0  0  0  0  0  0  0  0  0  0  0  0
   -0.5456    0.8578    0.8571 C   0  0  0  0  0  0  0  0  0  0  0  0
   -1.6389    0.8521    0.8478 H   0  0  0  0  0  0  0  0  0  0  0  0
   -0.1988    1.8617    0.5936 H   0  0  0  0  0  0  0  0  0  0  0  0
   -0.2031    0.5923    1.8619 H   0  0  0  0  0  0  0  0  0  0  0  0
  1  2  1  0  0  0  0
  1  6  1  0  0  0  0
  2  3  1  0  0  0  0
  2  4  1  0  0  0  0
  2  5  1  0  0  0  0
  6  7  1  0  0  0  0
  6  8  1  0  0  0  0
  6  9  1  0  0  0  0
M  END
$$$$
